&time_control
 run_days                            = 9,
 run_hours                           = 0,
 run_minutes                         = 0,
 run_seconds                         = 0,
 start_year                          = 1989, 1989, 1989,
 start_month                         = 03, 03, 03,
 start_day                           = 24, 25, 26,
 start_hour                          = 0, 0, 0,
 start_minute                        = 00, 00, 00,
 start_second                        = 00, 00, 00,
 end_year                            = 1989, 1989, 1989,
 end_month                           = 04, 04, 04,
 end_day                             = 02, 02, 02,
 end_hour                            = 0, 0, 0,
 end_minute                          = 00, 00, 00,
 end_second                          = 00, 00, 00,
 history_interval                    = 360, 360, 360,
 frames_per_outfile                  = 1000, 1000, 1000,
 restart                             = .false.,
 restart_interval                    = 1440,
 io_form_history                     = 2
 io_form_restart                     = 2
 io_form_input                       = 2
 io_form_boundary                    = 2
 debug_level                         = 500
 interval_seconds                    = 21600,
/

&domains
 time_step                           = 120,
 time_step_fract_num                 = 0,
 time_step_fract_den                 = 1,
 max_dom                             = 3,
 e_we                                = 115, 202, 208,
 e_sn                                = 125, 286, 208,
 e_vert                              = 36, 36, 36,
 i_parent_start                      = 1, 20, 58,
 j_parent_start                      = 1, 17, 82,
 parent_id                           = 1, 1, 1,
 grid_id                             = 1, 2, 3,
 parent_time_step_ratio              = 1, 3, 9,
 parent_grid_ratio                   = 1, 3, 9,
 feedback                            = 1
 dx                                  = 36000, 12000, 4000,
 dy                                  = 36000, 12000, 4000,
 vortex_interval                     = 15, 15, 15,
 max_vortex_speed                    = 40, 40, 40,
 corral_dist                         = 8, 15, 15,
 track_level                         = 50000,
 time_to_move                        = 0.,
 num_metgrid_levels                  = 61,
 num_metgrid_soil_levels             = 4,
 use_surface                         = .true.,
 lowest_lev_from_sfc                 = .false.,
/

&physics
 mp_physics                          = 4, 4, 4,
 ra_lw_physics                       = 4, 4, 4,
 ra_sw_physics                       = 4, 4, 4,
 radt                                = 30, 30, 30,
 sf_sfclay_physics                   = 1, 1, 1,
 sf_surface_physics                  = 1, 1, 1,
 bl_pbl_physics                      = 1, 1, 1,
 bldt                                = 0, 0, 0,
 cu_physics                          = 1, 1, 0,
 cudt                                = 0,
 num_soil_layers                     = 5,
 isftcflx                            = 2,
 maxiens                             = 1,
 maxens                              = 3,
 maxens2                             = 3,
 maxens3                             = 16,
 ensdim                              = 144,
/

&fdda
