&time_control
 run_days                            = 12,
 run_hours                           = 0,
 run_minutes                         = 0,
 run_seconds                         = 0,
 start_year                          = 1978, 1978, 1978,
 start_month                         = 03, 03, 03,
 start_day                           = 25, 26, 27,
 start_hour                          = 0, 0, 0,
 start_minute                        = 00, 00, 00,
 start_second                        = 00, 00, 00,
 end_year                            = 1978, 1978, 1978,
 end_month                           = 04, 04, 04,
 end_day                             = 06, 06, 06,
 end_hour                            = 0, 0, 0, 
 end_minute                          = 00, 00, 00,
 end_second                          = 00, 00, 00,
 history_interval                    = 360, 360, 360,
 frames_per_outfile                  = 1000, 1000, 1000,
 restart                             = .false.,
 restart_interval                    = 1440,
 io_form_history                     = 2
 io_form_restart                     = 2
 io_form_input                       = 2
 io_form_boundary                    = 2
 debug_level                         = 1000
 interval_seconds		     = 21600,
/

&domains
 time_step                           = 120, 
 time_step_fract_num                 = 0, 
 time_step_fract_den                 = 1, 
 max_dom                             = 3, 
 e_we                                = 115, 202, 208,
 e_sn                                = 125, 286, 208,
 e_vert                              = 36, 36, 36,
 i_parent_start			     = 1, 20, 46,
 j_parent_start			     = 1, 17, 88,
 parent_id			     = 1, 1, 1,
 grid_id			     = 1, 2, 3,
 parent_time_step_ratio		     = 1, 3, 9,
 parent_grid_ratio		     = 1, 3, 9,
 feedback			     = 1 
 dx                                  = 36000, 12000, 4000,  
 dy                                  = 36000, 12000, 4000,
 vortex_interval                     = 15, 15, 15,
 max_vortex_speed                    = 40, 40, 40,
 corral_dist                         = 8, 15, 15, 
 track_level                         = 50000,
 time_to_move			     = 0.,
 num_metgrid_levels 	 	     = 18,
 num_metgrid_soil_levels	     = 0,
 use_surface			     = .true.,
 lowest_lev_from_sfc		     = .false.,
/

&physics
 mp_physics                    	     = 4, 4, 4,
 ra_lw_physics                       = 4, 4, 4,
 ra_sw_physics                       = 4, 4, 4,
 radt                                = 30, 30, 30,
 sf_sfclay_physics                   = 91, 91, 91,
 sf_surface_physics                  = 1, 1, 1,
 bl_pbl_physics                      = 1, 1, 1,
 bldt                                = 0, 0, 0,
 cu_physics                          = 99, 99, 0,
 cudt                                = 0,
 num_soil_layers                     = 5,
 isftcflx                            = 2,
 maxiens 			     = 1,
 maxens 			     = 3,
 maxens2 			     = 3,
 maxens3 			     = 16,
 ensdim 			     = 144,
/

&fdda
/

&dynamics
 w_damping                           = 0,
 diff_opt                            = 1,      1,      1,
 km_opt                              = 4,      4,      4,
 diff_6th_opt                        = 0,      0,      0,
 diff_6th_factor                     = 0.12,   0.12,   0.12,
 base_temp                           = 290.
 damp_opt                            = 0,
 zdamp                               = 5000.,  5000.,  5000.,
 dampcoef                            = 0.2,    0.2,    0.2
 khdif                               = 0,      0,      0,
 kvdif                               = 0,      0,      0,
 non_hydrostatic                     = .true., .true., .true.,
 moist_adv_opt                       = 1,      1,      1,
 scalar_adv_opt                      = 1,      1,      1,
/

&bdy_control
 spec_bdy_width                      = 5,
 spec_zone                           = 1,
 relax_zone                          = 4,
 specified                           = .true., .false., .false.,
 nested                              = .false., .true., .true.,
/

&grib2
/

&namelist_quilt
 nio_tasks_per_group = 0,
 nio_groups = 1,
/

