 &time_control
 run_days                            = 0,
 run_hours                           = 0,
 run_minutes                         = 0,
 run_seconds                         = 0,
 start_year                          = 1989,
 start_month                         = 03,
 start_day                           = 26,
 start_hour                          = 00,
 start_minute                        = 00,
 start_second                        = 00,
 end_year                            = 1989,
 end_month                           = 04,
 end_day                             = 10,
 end_hour                            = 0,
 end_minute                          = 00,
 end_second                          = 00,
 history_interval                    = 180,
 frames_per_outfile                  = 1,
 restart                             = .false.,
 restart_interval                    = 720,
 io_form_history                     = 2
 io_form_restart                     = 2
 io_form_input                       = 2
 io_form_boundary                    = 2
 debug_level                         = 0
 io_form_auxhist23                   = 2,
 auxhist23_interval                  = 60, 
 frames_per_auxhist23                = 1,
 auxhist23_outname                   = "PLEVS_d<domain>_<date>"
 iofields_filename                   = "field_list_d01.txt",
 io_form_auxhist24                   = 2
 auxhist24_interval                  = 60,  
 frames_per_auxhist24                = 1, 
 auxhist24_outname                   = "SFC_d<domain>_<date>"
 auxhist2_interval                  = 60, 
 /

&diags
 p_lev_diags                         = 1
 num_press_levels                    = 23
 press_levels                        = 100000,   97500,   95000,   92500,   90000,   
                                        85000,   80000,   75000,   70000,   65000,   
                                        60000,   55000,   50000,   45000,   40000,   
                                        35000,   30000,   25000,   20000,   15000,   
                                        10000,    7000,    5000,   
 use_tot_or_hyd_p                    = 2
 /

 &afwa
 afwa_diag_opt                       = 1,   1,   1,
 /

 &domains
 time_step                           = 120,
 time_step_fract_num                 = 0,
 time_step_fract_den                 = 1,
 max_dom                             = 1,
 s_we                                = 1,
 e_we                                = 251,
 s_sn                                = 1,
 e_sn                                = 251,
 s_vert                              = 1,
 e_vert                              = 36,
 dx                                  = 36000,
 dy                                  = 36000,
 ztop                                = 25000.,
 /

 &physics
 mp_physics                          = 4,
 ra_lw_physics                       = 4,
 ra_sw_physics                       = 4,
 radt                                = 30,
 sf_sfclay_physics                   = 1,
 sf_surface_physics                  = 1,
 bl_pbl_physics                      = 1,
 bldt                                = 0,
 cu_physics                          = 1,
 cudt                                = 0,
 num_soil_layers                     = 5,
 isftcflx                            = 1,
 /

 &fdda
 /

 &dynamics
 rk_ord                              = 3,
 diff_opt                            = 1,
 km_opt                              = 4,
 damp_opt                            = 2,
 dampcoef                            = .003,
 zdamp                               = 5000.,
 rad_nudge                           = 1,
 khdif                               = 300,
 kvdif                               = 1,
 smdiv                               = 0.1,
 emdiv                               = 0.01,
 epssm                               = 0.1,
 time_step_sound                     = 6,
 h_mom_adv_order                     = 5,
 v_mom_adv_order                     = 3,
 h_sca_adv_order                     = 5,
 v_sca_adv_order                     = 3,
 mix_full_fields                     = .true.,
 non_hydrostatic                     = .true.,
 /

 &bdy_control
 periodic_x                          = .true.,
 symmetric_xs                        = .false.,
 symmetric_xe                        = .false.,
 open_xs                             = .false., 
 open_xe                             = .false.,
 periodic_y                          = .true.,
 symmetric_ys                        = .false.,
 symmetric_ye                        = .false.,
 open_ys                             = .false.,
 open_ye                             = .false.,
 /

 &grib2
 /

 &namelist_quilt
 nio_tasks_per_group = 0,
 nio_groups = 1,
 /
